242

C          3.07439        0.15741      -14.19981
C          2.67765        1.51883      -14.29129
C          2.31261        2.03187      -15.56518
C          1.15645        2.85294      -15.65666
C          3.06232        0.31440      -11.74215
C          2.59648        1.65376      -11.83363
C          2.20569        2.14746      -13.10752
C          1.00905        2.90834      -13.19900
C          0.39620        3.05281      -14.47288
C         -1.01428        2.90652      -14.56437
C         -1.58444        2.63935      -15.83825
C         -2.59945        1.64909      -15.92973
C          3.04223        0.47058       -9.28449
C          2.50852        1.78436       -9.37597
C          2.09300        2.25743      -10.64986
C          0.85902        2.95613      -10.74134
C          0.23958        3.06908      -12.01522
C         -1.16158        2.85086      -12.10671
C         -1.71733        2.55488      -13.38059
C         -2.68037        1.51401      -13.47207
C         -2.93235        0.93698      -14.74596
C         -3.04125       -0.47688      -14.83744
C         -2.88061       -1.08570      -16.11132
C         -2.08831       -2.26177      -16.20281
C          3.07841       -0.00084       -5.55295
C          3.01419        0.62552       -6.82683
C          2.41400        1.91030       -6.91831
C          1.97483        2.36150       -8.19220
C          0.70674        2.99619       -8.28368
C          0.08234        3.07731       -9.55757
C         -1.30583        2.78773       -9.64905
C         -1.84572        2.46373      -10.92293
C         -2.75428        1.37498      -11.01441
C         -2.97643        0.78582      -12.28830
C         -3.01289       -0.63177      -12.37978
C         -2.82132       -1.23157      -13.65366
C         -1.96993       -2.36559      -13.74515
C         -1.44741       -2.71692      -15.01903
C         -0.07596       -3.07748      -15.11051
C          0.55178       -3.02856      -16.38440
C          1.85082       -2.45990      -16.47588
C          3.07443        0.15657       -3.09529
C          2.97826        0.77883       -4.36917
C          2.31317        2.03123       -4.46066
C          1.85149        2.45939       -5.73454
C          0.55261        3.02841       -5.82602
C         -0.07512        3.07750       -7.09991
C         -1.44667        2.71731       -7.19139
C         -1.96928        2.36613       -8.46527
C         -2.82099        1.23234       -8.55675
C         -3.01272        0.63259       -9.83064
C         -2.97664       -0.78500       -9.92212
C         -2.75466       -1.37422      -11.19600
C         -1.84639       -2.46322      -11.28749
C         -1.30659       -2.78737      -12.56137
C          0.08150       -3.07734      -12.65285
C          0.70592       -2.99638      -13.92674
C          1.97418       -2.36204      -14.01822
C          2.41348       -1.91096      -15.29210
C          3.01402       -0.62635      -15.38359
C          3.06240        0.31357       -0.63763
C          2.93454        0.93010       -1.91151
C          2.20628        2.14685       -2.00300
C          1.72332        2.55085       -3.27688
C          0.39704        3.05270       -3.36836
C         -0.23238        3.06963       -4.64225
C         -1.58372        2.63979       -4.73373
C         -2.08769        2.26234       -6.00761
C         -2.88031        1.08648       -6.09910
C         -3.04112        0.47772       -7.37298
C         -2.93261       -0.93618       -7.46446
C         -2.68079       -1.51328       -8.73835
C         -1.71803       -2.55441       -8.82983
C         -1.16236       -2.85054      -10.10371
C          0.23874       -3.06914      -10.19519
C          0.85821       -2.95637      -11.46908
C          2.09238       -2.25801      -11.56056
C          2.50803       -1.78505      -12.83444
C          3.04210       -0.47141      -12.92593
C          3.04236        0.46975        1.82003
C          2.88315        1.07893        0.54614
C          2.09361        2.25686        0.45466
C          1.59063        2.63563       -0.81922
C          0.24043        3.06901       -0.91070
C         -0.38904        3.05373       -2.18459
C         -1.71663        2.55535       -2.27607
C         -2.20064        2.15263       -3.54995
C         -2.93210        0.93778       -3.64143
C         -3.06157        0.32159       -4.91532
C         -2.88090       -1.08491       -5.00680
C         -2.59990       -1.64837       -6.28069
C         -1.58516       -2.63892       -6.37217
C         -1.01508       -2.90624       -7.64605
C          0.39537       -3.05292       -7.73753
C          1.00826       -2.90862       -9.01142
C          2.20510       -2.14806       -9.10290
C          2.59603       -1.65447      -10.37678
C          3.06223       -0.31524      -10.46827
C          3.01436        0.62470        4.27769
C          2.82421        1.22494        3.00380
C          1.97548        2.36096        2.91232
C          1.45378        2.71351        1.63844
C          0.08318        3.07729        1.54696
C         -0.54468        3.02984        0.27307
C         -1.84504        2.46423        0.18159
C         -2.30783        2.03729       -1.09230
C         -2.97621        0.78663       -1.18378
C         -3.07401        0.16462       -2.45766
C         -2.82166       -1.23080       -2.54914
C         -2.51222       -1.77916       -3.82303
C         -1.44816       -2.71652       -3.91451
C         -0.86515       -2.95434       -5.18839
C          0.55095       -3.02871       -5.27987
C          1.15566       -2.85326       -6.55376
C          2.31205       -2.03250       -6.64524
C          2.67723       -1.51956       -7.91913
C          3.07434       -0.15825       -8.01061
C          2.97848        0.77801        6.73535
C          2.75788        1.36775        5.46146
C          1.85217        2.45888        5.36998
C          1.31313        2.78430        4.09610
C         -0.07428        3.07752        4.00462
C         -0.69889        2.99803        2.73073
C         -1.96863        2.36667        2.63925
C         -2.40899        1.91662        1.36536
C         -3.01254        0.63342        1.27388
C         -3.07841        0.00722       -0.00000
C         -2.75504       -1.37347       -0.09148
C         -2.41796       -1.90529       -1.36537
C         -1.30736       -2.78701       -1.45685
C         -0.71295       -2.99472       -2.73073
C          0.70510       -2.99658       -2.82222
C          1.30005       -2.79043       -4.09610
C          2.41295       -1.91162       -4.18758
C          2.75143       -1.38068       -5.46147
C          2.93480        0.92929        9.19301
C          2.68433        1.50698        7.91912
C          1.72402        2.55037        7.82764
C          1.16904        2.84780        6.55376
C         -0.23154        3.06969        6.46227
C         -0.85127        2.95837        5.18839
C         -2.08707        2.26291        5.09691
C         -2.50384        1.79093        3.82302
C         -3.04099        0.47855        3.73154
C         -3.07475       -0.15019        2.45766
C         -2.68120       -1.51254        2.36618
C         -2.31737       -2.02643        1.09229
C         -1.16314       -2.85022        1.00081
C         -0.55889       -3.02726       -0.27308
C          0.85740       -2.95660       -0.36456
C          1.44103       -2.72031       -1.63844
C          2.50754       -1.78574       -1.72992
C          2.81843       -1.23819       -3.00381
C          2.88344        1.07814       11.65067
C          2.60376        1.64227       10.37678
C          1.59135        2.63519       10.28530
C          1.02190        2.90385        9.01142
C         -0.38820        3.05384        8.91993
C         -1.00143        2.91098        7.64605
C         -2.20005        2.15323        7.55457
C         -2.59214        1.66056        6.28068
C         -3.06148        0.32243        6.18920
C         -3.06305       -0.30722        4.91532
C         -2.60035       -1.64766        4.82383
C         -2.21072       -2.14228        3.54995
C         -1.01588       -2.90597        3.45847
C         -0.40337       -3.05187        2.18458
C          1.00746       -2.90889        2.09310
C          1.57824       -2.64306        0.81922
C          2.59557       -1.65518        0.72774
C          2.87805       -1.09245       -0.54615
C          2.82454        1.22417       14.10833
C          2.51638        1.77326       12.83444
C          1.45453        2.71311       12.74296
C          0.87208        2.95231       11.46908
C         -0.54385        3.02999       11.37759
C         -1.14897        2.85596       10.10371
C         -2.30728        2.03792       10.01223
C         -2.67366        1.52584        8.73834
C         -3.07396        0.16547        8.64686
C         -3.04333       -0.46344        7.37298
C         -2.51270       -1.77847        7.28149
C         -2.09829       -2.25251        6.00761
C         -0.86596       -2.95411        5.91613
C         -0.24679       -3.06851        4.64224
C          1.15488       -2.85357        4.55076
C          1.71133       -2.55891        3.27688
C          2.67681       -1.52030        3.18540
C          2.93015       -0.94386        1.91151
C          2.42242        1.89961       15.29210
C          1.31389        2.78394       15.20062
C          0.71998        2.99304       13.92673
C         -0.69807        2.99822       13.83525
C         -1.29350        2.79347       12.56137
C         -2.40846        1.91728       12.46989
C         -2.74818        1.38713       11.19600
C         -3.07840        0.00807       11.10452
C         -3.01565       -0.61845        9.83064
C         -2.41848       -1.90463        9.73915
C         -1.98036       -2.35686        8.46527
C         -0.71377       -2.99452        8.37379
C         -0.08956       -3.07711        7.09990
C          1.29928       -2.79079        7.00842
C          1.83993       -2.46805        5.73454
C          2.75105       -1.38143        5.64306
C          2.97458       -0.79280        4.36917
C          0.56599        3.02594       16.38439
C         -0.85046        2.95861       16.29291
C         -1.43464        2.72368       15.01903
C         -2.50335        1.79162       14.92755
C         -2.81551        1.24480       13.65366
C         -3.07479       -0.14935       13.56218
C         -2.98008       -0.77184       12.28829
C         -2.31792       -2.02580       12.19681
C         -1.85726       -2.45504       10.92293
C         -0.55972       -3.02710       10.83145
C          0.06790       -3.07767        9.55756
C          1.44029       -2.72070        9.46608
C          1.96372       -2.37074        8.19220
C          2.81809       -1.23896        8.10071
C          3.01122       -0.63966        6.82683
C         -2.87548        1.09920       16.11132
C         -3.06313       -0.30638       16.01984
C         -2.93672       -0.92321       14.74595
C         -2.21131       -2.14167       14.65447
C         -1.72930       -2.54679       13.38059
C         -0.40420       -3.05176       13.28911
C          0.22518       -3.07017       12.01522
C          1.57752       -2.64350       11.92374
C          2.08238       -2.26723       10.64986
C          2.87775       -1.09324       10.55837
C          3.03999       -0.48485        9.28449
C         -1.59681       -2.63189       15.83825
C         -0.24763       -3.06844       15.74677
C          0.38187       -3.05464       14.47288
C          1.71063       -2.55937       14.38140
C          2.19558       -2.15779       13.10751
C          2.92989       -0.94466       13.01603
C          3.06081       -0.32877       11.74215
C          2.30305       -2.04270       15.56517
C          2.97436       -0.79361       15.47369
C          3.07362       -0.17184       14.19981
